psse/psse-converter/src/test/resources/TwoWindingsTransformerPhase.xiidm
<?xml version="1.0" encoding="UTF-8"?>
<iidm:network xmlns:iidm="http://www.powsybl.org/schema/iidm/1_18" xmlns:slt="http://www.powsybl.org/schema/iidm/ext/slack_terminal/1_5" id="TwoWindingsTransformerPhase" caseDate="2016-01-01T10:00:00.000+02:00" forecastDistance="0" sourceFormat="PSS/E" minimumValidationLevel="STEADY_STATE_HYPOTHESIS">
    <iidm:substation id="S1-2">
        <iidm:voltageLevel id="VL1-2" nominalV="138.0" topologyKind="BUS_BREAKER">
            <iidm:busBreakerTopology>
                <iidm:bus id="B1" name="Bus 1       " v="146.28" angle="0.0"/>
                <iidm:bus id="B2" name="Bus 2       " v="145.99020000000002" angle="-4.27"/>
            </iidm:busBreakerTopology>
            <iidm:generator id="B1-G1 " energySource="OTHER" minP="-10000.0" maxP="10000.0" targetP="21.7" localTargetV="146.28" localTargetQ="13.88" bus="B1" connectableBus="B1">
                <iidm:minMaxReactiveLimits minQ="0.0" maxQ="0.0"/>
            </iidm:generator>
            <iidm:load id="B2-L1 " loadType="UNDEFINED" p0="21.7" q0="12.7" bus="B2" connectableBus="B2"/>
        </iidm:voltageLevel>
        <iidm:twoWindingsTransformer id="T-1-2-1 " r="0.0" x="39.8248128" ratedU1="138.0" ratedU2="138.0" voltageLevelId1="VL1-2" bus1="B1" connectableBus1="B1" voltageLevelId2="VL1-2" bus2="B2" connectableBus2="B2">
            <iidm:phaseTapChanger regulating="false" tapPosition="0" loadTapChangingCapabilities="true" regulationMode="CURRENT_LIMITER">
                <iidm:step g="-4.351599999999978" b="-4.351599999999978" rho="1.0224948875255624" alpha="-2.0"/>
            </iidm:phaseTapChanger>
        </iidm:twoWindingsTransformer>
    </iidm:substation>
    <iidm:extension id="VL1-2">
        <slt:slackTerminal id="B1-G1 "/>
    </iidm:extension>
</iidm:network>
